50
A169/struc.xyz
C            1.12880846213489       -2.44555762733723       -2.03364577447430
C            0.48260178587896       -3.81006363737841       -1.82655411179518
C           -1.01984885912308       -3.76139888342473       -1.57702046312629
C           -1.68024845544657       -5.12142144026904       -1.33836388874789
C           -1.78737709036431       -5.55420996694657        0.12127602983808
C           -0.47070105710693       -5.72509854880684        0.86150865518531
H           -0.63488693660790       -6.13059737802696        1.85993679748689
H            0.05471589227346       -4.77884527053327        0.98123745625554
H            0.19658734549264       -6.40827640905556        0.33434680791390
H           -2.40589502957729       -4.82764735413118        0.65696541264239
H           -2.33996583348369       -6.49681790128066        0.15896628725675
H           -1.14787740987311       -5.88962103480224       -1.90806227903161
H           -2.69285524305751       -5.10099810767695       -1.74804784516709
H           -1.24229437818803       -3.10860584130764       -0.72953340898390
H           -1.48373969145978       -3.28184679956383       -2.44359538316308
H            0.98736758598071       -4.32126271455197       -1.00502552121802
H            0.66292994439729       -4.42583531790423       -2.71223621173663
C            1.12718892778282       -1.55487578097573       -0.80085706832302
C            1.82900485616264       -0.22331264819012       -1.00849342233017
C            1.79395769159479        0.67111467749150        0.21955932827236
C            2.47602648146118        2.01351423269989        0.01700957472995
C            2.48626631813345        2.90865029381414        1.25193540474644
C            1.11591018421841        3.28930545894736        1.80358209685359
C            0.23253970433780        4.04867392773823        0.82720584096033
C           -1.10802004028255        4.46116678950357        1.41291689938505
C           -1.99076422152890        5.22015220482023        0.43480371838168
H           -1.63901423373807        3.56910081411430        1.76080922225417
H           -0.94403046453879        5.07511796604563        2.30422213837811
H            0.76545371994810        4.93882043521639        0.47680153784467
H            0.05400772131854        3.44038344687406       -0.06307029718262
H            1.26158954741351        3.90047759851652        2.69870966272611
H            0.58905577030044        2.39457105693131        2.14525187381019
H            3.05583903987290        2.41091800568661        2.04210581092226
H            3.03701518443890        3.82393912822651        1.01662506279358
H            2.00223424234357        2.53533823310459       -0.81851794892934
H            3.51007825433418        1.84252986034692       -0.29543731689085
H            0.75138092968311        0.82434856358223        0.50978237896100
H            2.26284478650812        0.15102801986319        1.06141580162517
H            1.36422134342138        0.30182659813381       -1.84914802010487
H            2.86771072455744       -0.39931715141353       -1.30525555179929
H            0.10074781261668       -1.36191786336344       -0.48004882363365
H            1.60283995496929       -2.08894937208841        0.02835431165084
H            0.62615871193558       -1.92568163081589       -2.85580633905419
H            2.16267386289733       -2.58999593165623       -2.35999445783945
C           -3.33495468831456        5.62055397182978        1.01843069176571
H           -1.46017892699124        6.11287732082485        0.09140872036552
H           -2.14771209296050        4.60618199151662       -0.45670988927296
H           -3.94165209253564        6.16274857290693        0.29348498700489
H           -3.90410093461461        4.74579561167586        1.33565539306466
H           -3.21163910661511        6.26301983108958        1.89111611972922
