50
A1600/struc.xyz
C           -2.27046997435032       -0.53917807962854        2.16645342099560
C           -2.01416283342705        0.34228682428742        0.95433372443142
C           -2.25624257837238       -0.35825674327099       -0.37197969355976
C           -1.96568788154643        0.51956914201594       -1.57806256895301
C           -2.15031083499102       -0.18660924453736       -2.91110492914030
C           -1.85988428879350        0.70271575492635       -4.10780956082579
H           -1.98831189479768        0.16603178687663       -5.04742899560489
H           -0.83689521235644        1.07820199063411       -4.08151559093025
H           -2.52442148106498        1.56734491036276       -4.12769905337157
H           -1.50088218701334       -1.06603663959604       -2.94217280391954
H           -3.17252142931351       -0.56926858847918       -2.97835379375715
H           -0.93991566775333        0.89415879350172       -1.51019332255032
H           -2.60752860800491        1.40555422486095       -1.54509776890307
H           -1.62943845447219       -1.25453565658218       -0.42039166916143
H           -3.28968377961456       -0.71505378545501       -0.41933848706700
H           -0.98326611972745        0.70129412770453        0.96686086199603
H           -2.64040162619558        1.23794750461247        1.01763912470842
C           -1.95507987278233        0.11975174567218        3.50747850392348
C           -0.50701338950502        0.56772027402626        3.67984424555090
C            0.50701338950504       -0.56772027402629        3.67984424555090
C            1.95507987278233       -0.11975174567217        3.50747850392348
C            2.27046997435030        0.53917807962856        2.16645342099560
C            2.01416283342704       -0.34228682428742        0.95433372443143
C            2.25624257837237        0.35825674327098       -0.37197969355976
C            1.96568788154643       -0.51956914201595       -1.57806256895301
C            2.15031083499102        0.18660924453736       -2.91110492914029
H            2.60752860800492       -1.40555422486095       -1.54509776890307
H            0.93991566775334       -0.89415879350174       -1.51019332255032
H            1.62943845447218        1.25453565658217       -0.42039166916143
H            3.28968377961455        0.71505378545501       -0.41933848706699
H            0.98326611972745       -0.70129412770455        0.96686086199603
H            2.64040162619560       -1.23794750461246        1.01763912470843
H            1.69638596472867        1.46321145146537        2.06234356078305
H            3.31912560980323        0.84874508693508        2.16693217332193
H            2.60779293916788       -0.98806412130040        3.63429307926994
H            2.21738201666397        0.57363233717283        4.31174424763757
H            0.41332999670361       -1.12685969708049        4.61475155143969
H            0.26488765150772       -1.28298042933848        2.89351841331153
H           -0.41332999670357        1.12685969708045        4.61475155143969
H           -0.26488765150767        1.28298042933845        2.89351841331153
H           -2.60779293916784        0.98806412130044        3.63429307926994
H           -2.21738201666400       -0.57363233717282        4.31174424763757
H           -1.69638596472873       -1.46321145146538        2.06234356078305
H           -3.31912560980328       -0.84874508693500        2.16693217332194
C            1.85988428879350       -0.70271575492635       -4.10780956082580
H            1.50088218701334        1.06603663959603       -2.94217280391954
H            3.17252142931351        0.56926858847920       -2.97835379375714
H            1.98831189479768       -0.16603178687663       -5.04742899560488
H            2.52442148106499       -1.56734491036275       -4.12769905337157
H            0.83689521235644       -1.07820199063412       -4.08151559093024
