62
A2017/struc.xyz
C           -4.60198702238170        7.46380014241969       -0.77197281903859
C           -4.40726202807264        5.98918255035338       -1.08046017678844
C           -3.50854805250210        5.27910793328695       -0.08119905985276
C           -3.31298036497565        3.80224463527489       -0.37790701075322
C           -2.42491917738422        3.08765539374443        0.62695066007062
C           -2.25650041327958        1.60633519392810        0.33486604292891
C           -1.38629057899031        0.88020982243287        1.34802108465943
C           -1.14930085215556       -0.59265845359746        1.03467825224083
C           -2.40255415652640       -1.45363548239016        1.08973494547394
C           -2.18741400472087       -2.95702068813383        0.93792788450251
C           -1.57715228287903       -3.39995638961419       -0.39425485051694
C           -0.05849925784163       -3.49762576133925       -0.39071956210028
C            0.53796591457652       -3.81184604019926       -1.75284413772694
C            2.05802799027055       -3.93210985509034       -1.75527987510791
C            2.78231426233750       -2.64111791390583       -1.40748071628911
C            4.29628155469376       -2.76212611108601       -1.43105665545878
C            5.03183556758809       -1.46678753546125       -1.10067228844538
C            4.72351923921354       -0.85860564965267        0.26448342964985
C            5.04157397257286       -1.75796047896001        1.44850424341335
C            4.75653220394053       -1.10299263048893        2.78986608119794
H           -5.25009540193846        7.94528081159522       -1.50382299994594
H           -3.65006996719116        7.99626462612421       -0.77322058796032
H           -5.05273731961039        7.60480271585388        0.21120389866149
H           -3.98773734004489        5.87697955727681       -2.08432607022523
H           -5.37979365977422        5.48924970099240       -1.10657658411254
H           -3.92676327387000        5.39273496538211        0.92405432128425
H           -2.53352818686175        5.77601129857328       -0.05484256524032
H           -2.88963374956184        3.68630697671264       -1.38062625311275
H           -4.28925896467825        3.30821042626125       -0.40909926651010
H           -2.84293785601107        3.21225142521771        1.63087105207454
H           -1.44244372193091        3.56945222127466        0.65192810377235
H           -1.82421928831051        1.48099169954045       -0.66344742739956
H           -3.24505183814276        1.14320233502878        0.29148081657235
H           -1.83405615365138        0.97287450978856        2.34267759682318
H           -0.41882704410268        1.38714040849748        1.40768154641207
H           -0.41415122775275       -0.99048417019630        1.74029488901382
H           -0.68981401677612       -0.66776756985560        0.04602832711560
H           -3.10398230287952       -1.12927240611678        0.31701788523359
H           -2.90718772383019       -1.27082206449837        2.04376361344131
H           -3.15781557284502       -3.44155311769972        1.06709475998448
H           -1.56350389936176       -3.32207635268374        1.75989749585773
H           -1.89582926882015       -2.71142445149289       -1.18369554550846
H           -1.98320138454496       -4.37476436931834       -0.67659070314456
H            0.24653393910276       -4.27002546244565        0.32289206425738
H            0.36226529032369       -2.56778888224527       -0.01256400069682
H            0.23855400753916       -3.03500253158211       -2.46410831701684
H            0.10294101964324       -4.74272815345048       -2.12784300919084
H            2.38884193351477       -4.27418787232479       -2.74002131349274
H            2.35855698562830       -4.71429468432767       -1.05053395534636
H            2.46625201738338       -2.30469217231032       -0.41955321185884
H            2.47068298185876       -1.85426620242992       -2.10314388650432
H            4.61514778312447       -3.09949487902551       -2.42138815959065
H            4.60411605259400       -3.55226368241484       -0.74102358773538
H            4.80140442270970       -0.72574915544119       -1.87163935268563
H            6.10837971652359       -1.64711654813875       -1.17103284149202
H            3.67263633498143       -0.56041466058907        0.31247558369593
H            5.29234695107013        0.07043730431806        0.36400894484142
H            6.09338444442609       -2.05574720520432        1.40016890726523
H            4.46672420826493       -2.68390193915206        1.37591556694405
H            3.70220191368801       -0.83820315061581        2.88207243163572
H            5.33450488719250       -0.18672207360587        2.91682114156098
H            5.00252175943814       -1.76551990679338        3.61956522026383
