62
A2013/struc.xyz
C           -5.52958280922336       -2.22250040744283       -1.12518916125616
C           -5.27896012285031       -2.69051043345860        0.29901857627333
C           -4.36234545323451       -3.90479945991159        0.40726024345345
C           -2.95029536358851       -3.73099719436196       -0.14306315575516
C           -2.12923466351730       -2.66419963456217        0.56384907928595
C           -0.71794770806628       -2.47568177094111        0.01758863564066
C            0.20536157433650       -3.66952217556957        0.21065135840464
C            1.61901912185356       -3.46790294628005       -0.32397318644077
C            2.42741461123140       -2.40798883254758        0.40636006523605
C            3.85179183742134       -2.27389782878989       -0.10513272588961
C            4.69395206614362       -1.24987960390388        0.64906864029698
C            4.14992355290047        0.17488005462025        0.64837279108875
C            4.00513377443589        0.78864457034830       -0.73514192669401
C            3.53509667154773        2.23825004307044       -0.73557243515666
C            2.11178012361495        2.43404379976587       -0.23875166997840
C            1.63529015979440        3.87519044826303       -0.30316450831362
C            0.21106469212825        4.05771450777509        0.19377937474085
C           -0.27097903751442        5.49829335603085        0.14606123165727
C           -1.67872914852672        5.71552615696451        0.68838586980997
C           -2.77720612314290        5.04803156244797       -0.12417008671862
H           -4.61626525164076       -1.87585347134599       -1.60781218935396
H           -6.24170067127574       -1.39795201533536       -1.15045728921904
H           -5.93656066274203       -3.02839512131515       -1.73810207864259
H           -6.23484354243527       -2.94300269259311        0.76459685709768
H           -4.87707630183683       -1.86375783235195        0.88921268477802
H           -4.83582120757300       -4.74492429238241       -0.10927117885353
H           -4.29413521397964       -4.20047136935157        1.45841698494326
H           -2.99043313437156       -3.50290048750081       -1.21196983576210
H           -2.44235343118219       -4.69441249818539       -0.06908719203894
H           -2.07397451165435       -2.90187987874058        1.63162724249277
H           -2.64946146677072       -1.70611356157249        0.50018738809474
H           -0.28242734927404       -1.59731306434509        0.49773471552228
H           -0.77394519772481       -2.23514608233792       -1.04949962439514
H           -0.22481236341364       -4.54606373508753       -0.27725531775691
H            0.25578151429899       -3.91461340710469        1.27689367922339
H            1.56888156045241       -3.21330410298503       -1.38776175395926
H            2.15464591320068       -4.42002179914946       -0.27145750934903
H            2.44880655136077       -2.64454870091597        1.47575511806630
H            1.92266533553228       -1.44447591785510        0.32496097790960
H            3.82994126068905       -2.02794717676573       -1.17012099401036
H            4.34847318517235       -3.24617803530527       -0.04065695542676
H            5.70330763321027       -1.24522675743151        0.22770145308238
H            4.80227331322272       -1.58077141949533        1.68601787198378
H            4.81982080048320        0.80309471928151        1.24288443464092
H            3.19161122135095        0.19677834230965        1.16962522076339
H            3.30889780863054        0.19665259238510       -1.33517630130765
H            4.96906994161768        0.72524254683280       -1.24856907669611
H            3.60802292174965        2.63293969998290       -1.75291023255181
H            4.21764058939780        2.84339242495662       -0.13037695519125
H            2.02218749411011        2.08101038772918        0.79144163084482
H            1.43779267522830        1.80442356623940       -0.82908011379537
H            1.70930215918348        4.23833403528323       -1.33311156246617
H            2.31025806338560        4.50600743776761        0.28379990606870
H            0.13886804153852        3.68979520245022        1.22262905071793
H           -0.45129708044344        3.42085192122833       -0.39749450219996
H           -0.22188822628521        5.86242575255063       -0.88533810299928
H            0.42608665477359        6.12010765356442        0.71509090944306
H           -1.87396486395439        6.78970853215544        0.73283563486170
H           -1.72262602547387        5.36061877607546        1.72234803841473
H           -2.75411182195900        5.38152345793837       -1.16284407025237
H           -3.76246848029070        5.28695290536411        0.27560391436426
H           -2.68471559005151        3.96271925384147       -0.12724788677117
