38
A124/struc.xyz
C           -0.68418369006935        0.65594743750022        2.48128546690171
C           -1.35053950831491       -0.69313001089850        2.21908772964323
C           -1.57779571215667       -1.07630176413711        0.76234234335430
C           -2.50863336860591       -0.14697733282961        0.00249709458371
C           -2.67910789092817       -0.51677812935573       -1.46151198836156
C           -3.59742089377229        0.43302408694816       -2.21167535980829
H           -4.59425813058168        0.44985153994160       -1.76925148055910
H           -3.70533982244199        0.14859867273085       -3.25804734100073
H           -3.21250995764635        1.45332808305478       -2.18485182876229
H           -1.69649495484799       -0.53048816436707       -1.94266495153680
H           -3.06220083160393       -1.53834698663116       -1.53814026876727
H           -3.48738933941958       -0.13783189634527        0.49307107020775
H           -2.14001320151589        0.87923423727944        0.06220169011538
H           -0.61815796086124       -1.13705235205237        0.24317518792134
H           -1.98678657960189       -2.09023274199188        0.73078511669287
H           -0.74114638134917       -1.46989781366774        2.69027364872852
H           -2.31198584097912       -0.71245303222338        2.74115632622083
C            0.72112513917602        0.81837426537093        1.89762979189591
C            0.78459952756040        1.42951222756424        0.50395148689643
C            2.20124922910048        1.62742192269592       -0.02529507133454
C            3.01511588691623        0.35433905064830       -0.23538458521545
C            2.44432012172203       -0.60067518191152       -1.27186115772596
C            3.30335825697519       -1.83665803607562       -1.48150206959177
H            3.39995293689846       -2.40949247569375       -0.55820485202805
H            2.87719267146662       -2.49801350171176       -2.23562061118740
H            4.31011808336024       -1.57078854267097       -1.80628861908201
H            1.43979578204132       -0.91220290409590       -0.97788034061191
H            2.32559616272489       -0.06945802689424       -2.22107450723890
H            4.02670590405569        0.63824136926417       -0.53974484467894
H            3.13598134348766       -0.17485633425280        0.71365573665094
H            2.14836242126421        2.16882243952956       -0.97443584799156
H            2.74498634258799        2.28161541540152        0.66262044105019
H            0.28791886946219        2.40373273700318        0.53095052471808
H            0.20912341848950        0.83182218240031       -0.20256251004771
H            1.21884134645969       -0.15480985954652        1.90397952145287
H            1.31454028770060        1.45279188977964        2.56210648161031
H           -0.63141298659613        0.77978263706453        3.56530780748238
H           -1.32350668015710        1.47000489317553        2.12992076940346
