62
A2012/struc.xyz
C            0.03253535801225        7.13899387575970        1.42145699780033
C           -1.17861493816275        7.62101863975164        0.63964700717763
C           -1.22093817991896        7.14563991134327       -0.80928805179598
C           -1.26930288357856        5.63512305412422       -1.01025578178689
C           -2.49382045715317        4.95682790811977       -0.41827623456093
C           -2.53223373741742        3.45869702410537       -0.66938869462283
C           -3.75623140710442        2.77870121692185       -0.07656188150991
C           -3.84491343609795        1.28176279655215       -0.34664002786505
C           -2.74755063455267        0.45873532413708        0.30792648620665
C           -2.88148151493692       -1.03614464558492        0.07315083884499
C           -1.76190613643816       -1.84213280697301        0.70962495423923
C           -1.87308625757173       -3.33799003344831        0.47172360931333
C           -0.78294860046986       -4.16413296299241        1.14552076997496
C            0.65049503950710       -3.84397816797963        0.73180021921141
C            0.93896417141859       -4.04578583435920       -0.74794316091262
C            2.36650920372818       -3.71029670512033       -1.16620953617042
C            3.43351868197313       -4.60488675543238       -0.55558077247055
C            4.83951248883692       -4.28798436625887       -1.03967617795278
C            5.92160788751072       -5.20221865869753       -0.47594158926819
C            6.11723755047418       -5.09357401649759        1.02834393440107
H            0.96144339698531        7.43527959448802        0.93139896678270
H            0.04915608018099        6.05411894463102        1.52190264436195
H            0.04406711780626        7.55662345292266        2.42803814787495
H           -1.19221144028471        8.71379690913978        0.64135049309514
H           -2.09118922939448        7.31747858793466        1.15800773467578
H           -0.34503482127810        7.54035781138363       -1.33269249304826
H           -2.09008133176505        7.59348526605734       -1.30008688737888
H           -0.36771185979563        5.17438849242696       -0.59800773122322
H           -1.23668392172398        5.42802685242378       -2.08374539235024
H           -3.39742232268941        5.41992951679401       -0.82816727252013
H           -2.53323665701242        5.13209211750997        0.65985021434515
H           -1.62164229570162        3.01310216373424       -0.26177178195804
H           -2.50103219528846        3.26746716127678       -1.74711061267390
H           -4.65305951689830        3.26404591684782       -0.47175737654681
H           -3.77586481933514        2.95085325841470        1.00443045343950
H           -3.83100689263189        1.10807834375835       -1.42741017140381
H           -4.81491083466184        0.91586338214510        0.00172930560073
H           -2.74437620750879        0.65649794622604        1.38492166006416
H           -1.76979991504307        0.78275440590238       -0.05641467955403
H           -2.89932478951646       -1.23230281365043       -1.00370491106218
H           -3.84711638291392       -1.38249486529894        0.45483831682620
H           -1.74282577411735       -1.64827850634465        1.78720684364060
H           -0.80650037929652       -1.47510226692958        0.32603945340730
H           -1.88144264467333       -3.53228428459364       -0.60392141043474
H           -2.84400002243897       -3.68429110828701        0.83722485032504
H           -0.97514333728409       -5.22344305550538        0.95233925555119
H           -0.86790245429971       -4.03738865227780        2.22878706678229
H            1.31652011941877       -4.47384981296150        1.32458459725481
H            0.89992304113769       -2.81549878851037        1.00767899715781
H            0.25509190605186       -3.43157121731925       -1.33776537332583
H            0.71694157436136       -5.08334373690853       -1.01934881574456
H            2.58028593782466       -2.66746819604100       -0.90996217052936
H            2.43702561228789       -3.76862945468027       -2.25630920690028
H            3.20123278152746       -5.64998718807694       -0.78754012330054
H            3.39753971473782       -4.52458708808882        0.53136586343069
H            5.08068883495974       -3.24893064671611       -0.79219526804574
H            4.86053024984482       -4.34660615562277       -2.13191615286912
H            6.86759198390105       -4.97500142648124       -0.97378607407293
H            5.68700765355869       -6.23796331751195       -0.73893155436074
H            6.34581752428455       -4.06770050798261        1.32159243887897
H            6.94093070193010       -5.72277877897956        1.36495420990083
H            5.23037361669592       -5.40111305271969        1.58087103765409
