62
A2010/struc.xyz
C           -1.79523862396385        2.01458227827814       -7.82432051751980
C           -3.12440668444595        1.53386540801192       -7.26637185249464
C           -3.14739959563442        1.47471377764004       -5.74757957501445
C           -4.47120562595216        0.99360507510189       -5.17337477102353
C           -4.53578088635947        0.99110380183040       -3.65016829266233
C           -3.58582560552489        0.00846462650367       -2.98489857576215
C           -3.66751777187504        0.01383348737829       -1.46816809058262
C           -2.74523374472635       -0.99330138528042       -0.78900739533846
C           -1.25958217743921       -0.85674205225918       -1.10982084770841
C           -0.66166249552762        0.49812387040479       -0.76811948239970
C            0.82075652267804        0.63289120032474       -1.10231816944436
C            1.75993101734623       -0.32263119084868       -0.37511863025158
C            1.75431410369646       -0.17381186742139        1.13642806654027
C            2.73787582924017       -1.08945334818697        1.84488631425746
C            2.74426490589881       -0.90557637038760        3.35275293852786
C            3.71891094158972       -1.81988592180595        4.07690058097323
C            3.69762532995202       -1.68563226513992        5.59504012423359
C            4.18499177227958       -0.34044041756105        6.11334547875647
C            4.26709682411319       -0.23975408124095        7.63216926228365
C            2.92202377522600       -0.31147889429652        8.33837676680881
H           -0.97895092331676        1.35902454363568       -7.51799635794670
H           -1.55769728467887        3.01784802085399       -7.46828106660313
H           -1.80286413281098        2.04438836945607       -8.91360089470522
H           -3.35222803949796        0.54215851471292       -7.66765466130462
H           -3.92746533396026        2.18889136214915       -7.61601409362709
H           -2.92148530323416        2.46741873388022       -5.34400204937122
H           -2.33477825012046        0.82600887531341       -5.41154838760261
H           -4.68186915530784       -0.01454316696520       -5.54456846739538
H           -5.27366450267940        1.62767479578706       -5.56075138165403
H           -5.55921640602757        0.76512064538987       -3.33774009368690
H           -4.32696854724661        2.00030405814363       -3.28009452922152
H           -2.56248870892226        0.23183127017343       -3.28891980060477
H           -3.79308059692145       -1.00123992961928       -3.35578053197489
H           -4.69617561524546       -0.19630357956814       -1.16163868877646
H           -3.45434544501705        1.02124898239047       -1.10081183974191
H           -3.06658664452689       -2.00299400066224       -1.06056815500281
H           -2.87991491033053       -0.91722097128164        0.29389449656525
H           -1.08457303985126       -1.06706596178995       -2.16882010169639
H           -0.72658260847279       -1.64058231471958       -0.56704770950045
H           -0.83143856518249        0.71105950148118        0.29114831083611
H           -1.19753945423418        1.28003040250746       -1.31067511651886
H            1.13437866871871        1.65907092207632       -0.88956290690728
H            0.94861508303418        0.49858097841412       -2.18045074456081
H            2.77615584043040       -0.15341935525484       -0.74240982526542
H            1.52363596979803       -1.35681972753560       -0.63863782113071
H            0.75171066345483       -0.36633471771586        1.52708938949339
H            1.97860637943901        0.86633928245585        1.39497400385468
H            3.74557852689067       -0.91503355969097        1.45460292836451
H            2.50165511327787       -2.13076844844742        1.60404663264418
H            1.73544625360951       -1.07859655967101        3.74209699266038
H            2.97381744665133        0.13888633446617        3.57650182717386
H            4.73300930316441       -1.63266673607680        3.70926973784019
H            3.49148696025190       -2.85596063514538        3.81071741651502
H            4.32119147674778       -2.47279205721996        6.02920645294961
H            2.68181880584023       -1.87841656410573        5.94964577203037
H            3.53860028306016        0.46014119666862        5.74469800931899
H            5.17515787626137       -0.14361252262333        5.69115709248364
H            4.75365161257042        0.70331627941133        7.89299913493496
H            4.92221467314296       -1.02953117383094        8.01166072384122
H            2.43122214696680       -1.27234818612699        8.18958336457041
H            2.24551846820464        0.46178214971182        7.97071970909979
H            3.03250410549876       -0.16735078207316        9.41292989744328
