62
A2011/struc.xyz
C           -6.57351079543046        7.18019662029812       -0.35515094773641
C           -5.39748204565119        6.43415256471955        0.25257709372701
C           -4.11473496543098        6.58469408295673       -0.55090612484274
C           -2.89903046317666        5.89035908431220        0.05145088874995
C           -3.00985194882204        4.37512963364751        0.11107783008244
C           -1.74351169370995        3.69338987894370        0.60339249540633
C           -1.85898408419373        2.18149724652646        0.76015636448688
C           -2.13382237463814        1.43449877810048       -0.53659969780006
C           -2.17959903555686       -0.08252091148384       -0.39552046563803
C           -0.84001454023095       -0.73295049925094       -0.09354277955423
C           -0.90685272906479       -2.24808996910922       -0.00459371798606
C            0.44797556132771       -2.89247896363922        0.23084061730050
C            0.39553861135680       -4.40792016800823        0.33772618057176
C            1.74913940529468       -5.06233256236004        0.58541132172767
C            2.71153255973659       -4.97593555278416       -0.58926004012663
C            4.05406251539119       -5.65645136661561       -0.35173191793912
C            4.89179981663068       -5.06946171953499        0.78209906123863
C            5.19288539613109       -3.57893239045030        0.67216866129842
C            5.98280192308572       -3.18126392897804       -0.56469130555594
C            6.30583129257132       -1.69739971266420       -0.61784264826794
H           -7.47661486245295        7.05830542515464        0.24255496381089
H           -6.79281032784827        6.81728329096610       -1.36023149176608
H           -6.36985295952446        8.24898465463095       -0.43202129675582
H           -5.65642584922442        5.37755926208362        0.34574943290445
H           -5.22345806521634        6.79066719231863        1.27235683385877
H           -3.89479096249466        7.65001070147782       -0.66579144085086
H           -4.27838184554625        6.20372469948794       -1.56446733006073
H           -2.71607727882334        6.28315785566736        1.05684041682530
H           -2.01573566739100        6.15501336630696       -0.53689352945642
H           -3.26925244675050        4.00736009104030       -0.88485899326356
H           -3.83833250242457        4.08485545648807        0.76240044577735
H           -1.46198049867089        4.12600540400577        1.56773350612243
H           -0.91841620345499        3.92340001787936       -0.07849016212714
H           -2.65474721957340        1.95359982985237        1.47721408777213
H           -0.93609253443651        1.81047960872278        1.21065734528112
H           -1.37256235656378        1.70457044472402       -1.27652628217063
H           -3.08567268793535        1.77000455661643       -0.95220789682041
H           -2.57108713597885       -0.51046303497819       -1.32261745898510
H           -2.90002190312555       -0.35167038972536        0.38367716072648
H           -0.43122690777507       -0.34338571087514        0.84195057239923
H           -0.12412653122207       -0.44995846665812       -0.87217078304713
H           -1.34131942727525       -2.64786022369516       -0.92631835653029
H           -1.59416981892602       -2.53536268998518        0.79735528759669
H            0.88793079917054       -2.48577803586112        1.14732098259043
H            1.12016950729442       -2.59628300039437       -0.57803923089259
H           -0.04871907355361       -4.82191666720692       -0.57318770712893
H           -0.28414674210980       -4.67769148888022        1.15080303532117
H            1.59794432690412       -6.11677124918568        0.83427229983622
H            2.19922805413028       -4.60840877732574        1.47212535680670
H            2.87968067702452       -3.93185816009043       -0.86022901088380
H            2.23741087192619       -5.43152610044636       -1.46361479314888
H            4.62946771565381       -5.62943729015359       -1.27980648276167
H            3.88418001769092       -6.71656513956433       -0.14227525748673
H            5.83662657896536       -5.61832678220180        0.83129048940384
H            4.39490761141377       -5.25645343941874        1.73654187742875
H            5.75118778946158       -3.27156500498077        1.56118631788773
H            4.26083916214016       -3.00728325679323        0.70301714057971
H            5.42770370074704       -3.45735020352625       -1.46389788914223
H            6.91040209117886       -3.76066413707666       -0.59764947256628
H            6.88894812463892       -1.38561492082332        0.24964989786031
H            5.39543229704234       -1.09646725371162       -0.63132167830703
H            6.87979007729499       -1.44450057849070       -1.50914177577978
