62
A203/struc.xyz
C           -5.09482072812730       -3.07048174260329       -1.17817135588642
C           -5.20745723798547       -1.85120415124569       -0.27745643366643
C           -4.22382151308385       -0.73478248964422       -0.61168126240019
C           -2.74985369858492       -1.10928609675281       -0.52017523838790
C           -2.29665137973007       -1.53069150052973        0.86926417524243
C           -0.78941957332456       -1.70681932626686        1.00454659602719
C           -0.21276339871507       -2.83983066681419        0.16838463921370
C            1.28201391728748       -3.07073088551555        0.36266115159554
C            2.12932128662868       -1.87174204967334       -0.02499201948174
C            3.63107741597447       -2.10612321732474        0.00411361552605
C            4.42413724782840       -0.85514398740444       -0.36470934922986
C            4.44136915476794        0.21261444259956        0.72403724578442
C            4.78487431580138        1.61926346366656        0.24296563678169
C            3.81557663595995        2.21626264518078       -0.77694450268279
C            2.35981404204176        2.17306282452345       -0.34651139225930
C            1.39831888274624        2.82502630108495       -1.32722456064624
C           -0.06864005485689        2.53484905530284       -1.02873304099340
C           -0.55541041358799        3.04217156819083        0.31892351827278
C           -2.02464640648909        2.75767254536369        0.58431657224015
C           -2.49697269806556        3.26398831894145        1.93652103176918
H           -4.12657885243640       -3.56103009662935       -1.08149124778101
H           -5.21850771555943       -2.79750617929546       -2.22748918911838
H           -5.85776831836611       -3.81074618653371       -0.93816566862220
H           -5.08417282035254       -2.15545989764137        0.76468243678079
H           -6.22081269878767       -1.44806002101642       -0.34706470902485
H           -4.41398331666869        0.11344266923400        0.05257774601083
H           -4.43134838338797       -0.37520443523563       -1.62383774860020
H           -2.15484421401482       -0.24787620261842       -0.83561301765801
H           -2.52624823897701       -1.89542960142802       -1.24303759341934
H           -2.79416691230412       -2.45948354907624        1.16113303151839
H           -2.62818446015340       -0.77589143715627        1.58889859836853
H           -0.54271822821106       -1.88528066906180        2.05555519118816
H           -0.30651719336897       -0.76295058511956        0.74004886082072
H           -0.39724342375684       -2.64813584489128       -0.89166616240185
H           -0.75300416196853       -3.76137854840232        0.40496866062315
H            1.58564160832933       -3.93581150333605       -0.23370894276422
H            1.48181427740614       -3.33824411008230        1.40510191857778
H            1.88382202727590       -1.03653079470895        0.63141463336141
H            1.84550042985126       -1.54810084703795       -1.03237717310644
H            3.87870325206071       -2.91221835534801       -0.69168603771258
H            3.93278792125455       -2.45994055853492        0.99525025711666
H            3.99783790019005       -0.44712302920003       -1.28435701459620
H            5.45362827311838       -1.12478471346978       -0.61224317306155
H            5.15985895669678       -0.08083017397444        1.49363256136465
H            3.47661006713676        0.24261666082595        1.23291374994491
H            5.79288637879565        1.62527861242768       -0.18118889030732
H            4.82177918547601        2.27842226899869        1.11493547161037
H            3.91794404046722        1.70593544960106       -1.73820801421304
H            4.10893420995977        3.25256988677729       -0.96618099405727
H            2.26572946670159        2.63776005318195        0.63843150826902
H            2.05324136438862        1.13382052710918       -0.21452585020390
H            1.62496251279087        2.46671237428259       -2.33559986835423
H            1.56488238837368        3.90641432888586       -1.34933942673387
H           -0.22960369423007        1.45328304432023       -1.08319437603770
H           -0.68855041551855        2.96834316790239       -1.81863137612642
H           -0.37494741464299        4.12031644163007        0.38522102607030
H            0.03536470703364        2.59212282614198        1.12054848601957
H           -2.19577283731480        1.68085735608479        0.52168822743102
H           -2.63245619762921        3.20231565817613       -0.20883372275194
H           -2.37192791252149        4.34426552628025        2.02057933185378
H           -1.92856826347296        2.80629886870403        2.74734920936672
H           -3.55004909014887        3.03916656815495        2.10437426353671
