62
A2019/struc.xyz
C           -1.34986592813737        8.13437090129051       -2.24487439227699
C           -1.16058663462351        6.62565750461996       -2.24602541621594
C           -1.42072556301542        5.94574893114487       -0.90575193091222
C           -2.85877104619707        6.03396213539653       -0.41850186668000
C           -3.11408092004024        5.35071706170725        0.92253190619846
C           -2.81863322580203        3.85572968745637        0.97462150102754
C           -3.65311394508042        3.02022412639174        0.01673101047871
C           -3.39837008831686        1.52087961267021        0.10382355865658
C           -2.01680692221621        1.09243351973315       -0.36422729126028
C           -1.81007236662339       -0.41198083319683       -0.33639449836240
C           -0.42946213523330       -0.83556589419035       -0.81046480013901
C           -0.20494929653064       -2.34170751899939       -0.86613581548812
C           -0.21966858911467       -3.03297387935097        0.48814656802677
C           -0.03392417141756       -4.54578185630313        0.42215175864706
C            1.27046832109915       -5.03085100593059       -0.20087456640074
C            2.51991345519094       -4.57619295163372        0.53462611189462
C            3.80813411178720       -5.10094965080826       -0.07716414539509
C            5.07570412662334       -4.62537931686014        0.62450930329712
C            5.22831254773997       -5.05102461554780        2.08157516858121
C            5.27422105870157       -6.55571237691195        2.29279655583807
H           -0.71756461649357        8.60967377278362       -1.49324945898708
H           -2.37967655068944        8.42013668767303       -2.03446996922181
H           -1.08770906084943        8.56298357294074       -3.21222556803323
H           -0.13796601519532        6.39848403566994       -2.55798844012490
H           -1.80945548562307        6.17767828709598       -3.00478969707031
H           -0.75640064801775        6.37394859213506       -0.14704443035369
H           -1.13203171668861        4.89593962436193       -0.99479292129626
H           -3.52118426299126        5.61780150966351       -1.18301056722839
H           -3.14875991084381        7.08206934576325       -0.32029202130534
H           -4.15889971612012        5.51314162055830        1.20322505945107
H           -2.51660463650000        5.85221797414271        1.68952968500947
H           -2.99857718343794        3.50189687580046        1.99433967942912
H           -1.75612775974788        3.68665974655081        0.79214362019978
H           -3.47674448298109        3.34407899758129       -1.01253189131637
H           -4.71137439027312        3.21631702977744        0.21330677890916
H           -4.14761368672154        0.99835937442289       -0.49777717890262
H           -3.55351736548061        1.18224120329413        1.13340357567730
H           -1.24769077039849        1.56475522016260        0.25191429564104
H           -1.85273991199150        1.46354463960803       -1.38146869944856
H           -2.56880284516947       -0.89509581211435       -0.96089123345616
H           -1.98725803388739       -0.77228251080341        0.67987423440605
H            0.32910049957631       -0.38089582881634       -0.16482232384208
H           -0.25997754834274       -0.41731157806271       -1.80691270063365
H            0.75210545852393       -2.52880728147444       -1.35782874355338
H           -0.96509644231197       -2.79611209550231       -1.51088487902090
H           -1.16773790281942       -2.83441212949318        0.99186748101283
H            0.54863767785752       -2.58630602355919        1.12600336126693
H           -0.87168556563813       -4.97563217683781       -0.13472206954856
H           -0.10878598876053       -4.95107762466157        1.43553331686759
H            1.32804039177363       -4.71768265419008       -1.24669227381339
H            1.25454886181845       -6.12418555959544       -0.22592745804183
H            2.44412667959468       -4.89158293026995        1.57889762195434
H            2.56413102216032       -3.48386152192455        0.55758746090309
H            3.85360587985046       -4.78522134369289       -1.12350008755807
H            3.78116664121568       -6.19352906670594       -0.10446647304742
H            5.11493143148196       -3.53314181392174        0.57257906986383
H            5.94393586384340       -4.98316289890672        0.06320230234581
H            4.42180176861708       -4.62329770808250        2.68202850292543
H            6.14818939468704       -4.60825271374774        2.47194597033736
H            5.44970370358811       -6.80188527462490        3.33996032205066
H            6.07569650325982       -7.01106502623481        1.70866212069330
H            4.34253793133257       -7.03873011744023        1.99918590734447
