62
A205/struc.xyz
C           -3.61676123916179        7.62452157990743       -4.62335435780688
C           -4.95006925050486        6.94423324375517       -4.35617063247302
C           -4.97479203099387        6.07938771055040       -3.10115062289702
C           -4.06866302387454        4.85978708693996       -3.15630168543284
C           -4.16238141029363        3.97693439091398       -1.92268839165912
C           -3.26426195496174        2.75286166426316       -1.98528724919843
C           -3.36748474272185        1.85322193160312       -0.76467481310668
C           -2.47510059679469        0.62583018694711       -0.84181958815739
C           -2.59777024684913       -0.29397610256159        0.36322114706619
C           -1.76921768280469       -1.56972435337249        0.26986808286924
C           -0.26514453024650       -1.35185106970872        0.31223514733502
C            0.53887241921414       -2.63758540380922        0.21509562345953
C            2.03973760804558       -2.41586435312158        0.29815558119581
C            2.85390044635853       -3.68926301924767        0.14157005811044
C            4.36283128691303       -3.48241087547264        0.21611086760401
C            4.88818607968438       -2.94356082634863        1.54281325949162
C            4.60815422539352       -3.84812790598503        2.73119594630108
C            5.19949143594505       -3.34132539866785        4.03648971846995
C            4.88878400628349       -4.21546597388888        5.24604190672231
C            5.51406070677434       -5.60066624315752        5.19355998010748
H           -2.81840473900613        6.90531860776816       -4.80127643590863
H           -3.31680509979837        8.24370499906717       -3.77647408704220
H           -3.67141396160262        8.27014010116351       -5.49954678835539
H           -5.22659358269087        6.33102109564643       -5.21890256765152
H           -5.72731934521775        7.70741480334537       -4.27073656421950
H           -6.00108552081860        5.74682907229259       -2.92149414909939
H           -4.70363424050968        6.69308667103370       -2.23600896481975
H           -3.02992761422172        5.17139710910258       -3.28894275802976
H           -4.31926118403297        4.26852154488243       -4.04311283873286
H           -5.19968690325666        3.65724816963450       -1.78273127304875
H           -3.91004797772225        4.56632747744831       -1.03571838209599
H           -2.22532096095997        3.07272945096014       -2.11228535065810
H           -3.50816393684348        2.17286813473177       -2.88083259829532
H           -4.40758256650228        1.53819979635250       -0.63534384649941
H           -3.11651136359104        2.42823022537581        0.13206793850265
H           -1.43889638947066        0.95037402126854       -0.96257057004014
H           -2.71817785041239        0.05995482392213       -1.74699757324589
H           -3.64940816516036       -0.56526832080593        0.49075823863690
H           -2.31861423297528        0.25371032835880        1.26901353864073
H           -2.03244342635574       -2.10143270557956       -0.65013876176899
H           -2.05010473587414       -2.23612108707473        1.09011400066787
H           -0.00594567956191       -0.83089016584801        1.23970372854879
H            0.04058060323339       -0.68658668340558       -0.49855227035519
H            0.29579620337198       -3.14454024121517       -0.72393295896253
H            0.23128744943546       -3.32250082156633        1.01154159152821
H            2.27054949779188       -1.93956190789374        1.25428551861044
H            2.34479670328569       -1.69987707884963       -0.47188826718784
H            2.61234636260945       -4.14712848788309       -0.82164394725380
H            2.53984883222064       -4.41497969173753        0.89599264617528
H            4.66547710135560       -2.80348097675855       -0.58617773958395
H            4.85786879243102       -4.43490365543245        0.00618078913612
H            4.47502461462666       -1.95010132097052        1.73539514460198
H            5.96841886724645       -2.79828738766621        1.45427569664451
H            4.99339375870306       -4.84609856783899        2.50737840611166
H            3.52944955052737       -3.96732851805237        2.86283648774853
H            4.82472705865673       -2.33087239416916        4.22333641032569
H            6.28487134276068       -3.24327185210244        3.93207468519094
H            3.80372179514265       -4.30866692365193        5.35065452183032
H            5.23314587361924       -3.70404015477405        6.14805290038231
H            6.59759125033643       -5.53653484187337        5.08242146204886
H            5.13473682144874       -6.18951487782749        4.35952718315488
H            5.30934549237716       -6.16204403891623        6.10478782636693
