50
A163/struc.xyz
C           -1.25956644157210        2.88915759150132       -0.97790187076186
C           -0.30123103608990        3.28344335263188        0.13314438326140
C            1.13876884760838        3.41271005067608       -0.33379027037784
C            2.10639447803655        3.76668689732776        0.78382669891652
C            3.56028637931631        3.90261988749573        0.34715627838438
C            4.19296538638279        2.60729767522566       -0.13741851902905
H            4.13442834452397        1.83258522425761        0.62881390084138
H            5.24557529321837        2.74951779126839       -0.38123723990686
H            3.70400867135276        2.22057328888322       -1.03060130688794
H            3.62993904993553        4.66014668557818       -0.43903137208537
H            4.14305819957408        4.28889972953120        1.18690887984730
H            2.03843359823611        3.00862894516348        1.57105925246568
H            1.78438883025275        4.70469925630518        1.24505785856475
H            1.43714202631187        2.46997465574416       -0.79917492159354
H            1.20495351004322        4.16914447437833       -1.12241360223709
H           -0.33864049993999        2.54243597308623        0.93541241777015
H           -0.63210060389198        4.22484706373820        0.58353983789358
C           -2.70486280617142        2.69079962995174       -0.53248295464885
C           -2.91132820025433        1.65361701350493        0.56787495251885
C           -2.34084594138010        0.28421227552205        0.24328123269659
C           -2.56813730425333       -0.75210465533538        1.33192590486156
C           -1.91943221088285       -2.10131855876679        1.04271595037855
C           -0.39756823479493       -2.08299062776813        1.08487309855580
C            0.26048852919114       -3.43618630484199        0.84325543831255
C            0.08597174131903       -3.97445007958547       -0.56842851122365
C            0.81357960867176       -5.28522097473851       -0.81822697225133
H           -0.97525892617071       -4.11432237397852       -0.78824123041543
H            0.44091089357504       -3.22367978507322       -1.28237840386752
H            1.32992115915425       -3.34914697091967        1.05538769915881
H           -0.12843968251080       -4.16443258591909        1.56209797300855
H           -0.08341170732583       -1.70372833433810        2.06176827571331
H           -0.00848914104042       -1.37288979798738        0.35086479404847
H           -2.27664389923101       -2.83524469708036        1.77083951638689
H           -2.26485402449268       -2.45413625496983        0.06780165064087
H           -3.64323869140619       -0.89288483078439        1.47318245312033
H           -2.18934939339219       -0.36609573349097        2.28402489731214
H           -2.77321235027601       -0.07853568626561       -0.69524519636018
H           -1.27072016004903        0.37961025961777        0.05730354967030
H           -3.98267196689162        1.56448978002459        0.76827241139773
H           -2.46884990291314        2.01130380869350        1.50129968813335
H           -3.10954340727376        3.64838380520416       -0.19312286915339
H           -3.29954210302919        2.40503950398051       -1.40472741991589
H           -0.89416503273291        1.97582165175840       -1.45477865978952
H           -1.23558601860331        3.65335159132050       -1.75960518504193
C            0.63382904756764       -5.80625935518242       -2.23426066767467
H            1.87899832020293       -5.15355008320338       -0.60880851942964
H            0.45973458113701       -6.03486165381750       -0.10472186461539
H           -0.41947332232351       -5.97722646134842       -2.46055785687085
H            1.01242458675725       -5.09305383947502       -2.96759434199667
H            1.16096192652470       -6.74767821750029       -2.38693923772483
