50
A1614/struc.xyz
C            1.28614413733071       -2.90064523618804       -0.66485162988557
C           -0.11003487292149       -3.05554667395607       -1.26660089489066
C           -0.15432757785537       -3.31764829281128       -2.76814436680688
C            0.57796335751835       -4.56956419998865       -3.23807004923512
C            0.09919905966139       -5.87846868539344       -2.62048620600352
C           -1.35306531105340       -6.21340764622080       -2.92144009880956
H           -1.53165425177343       -6.25233861390782       -3.99731313298841
H           -2.03699015175082       -5.47451007542618       -2.50472746025732
H           -1.63050865271471       -7.18177304782965       -2.50564570502300
H            0.73577957313511       -6.68718561540376       -2.98777317382915
H            0.25023735413751       -5.85528598268678       -1.53846553627402
H            1.64771985636645       -4.45846881156051       -3.04551763128696
H            0.48144458012755       -4.63823793580666       -4.32557898336323
H           -1.20106316677309       -3.37051844869998       -3.07504715779473
H            0.25500648406694       -2.45787792065392       -3.30310289357350
H           -0.70802685175621       -2.16873412662430       -1.05942799685847
H           -0.61362890183180       -3.87281779414151       -0.74484351756678
C            2.13014181371567       -1.73260009942888       -1.17789769337392
C            1.95344985330643       -0.41210651761698       -0.43645539778242
C            0.55738027120673        0.18589434639050       -0.46709986194007
C            0.48370928355383        1.57210290147591        0.14811128528122
C           -0.92099458608427        2.15268138140584        0.14178141505333
C           -1.03010236470637        3.56178902593416        0.70914490995077
C           -0.71702044600589        3.66821493072311        2.19249923055258
C           -0.87716162680464        5.07243551067788        2.74828288815060
C           -0.55839883651486        5.17507171766261        4.23046568010580
H           -0.22943309521200        5.75681771358399        2.19114736002857
H           -1.89964821681907        5.42131834724114        2.57175430236122
H           -1.36774618684913        2.98259369363910        2.74522013033521
H            0.30378501985275        3.32940574474122        2.38489230539697
H           -2.04345624982919        3.93424773265459        0.53528898860121
H           -0.36640783043963        4.22851102469445        0.14933972518392
H           -1.29368516475564        2.15528217132828       -0.88623980030051
H           -1.58817634403396        1.48731580150925        0.69920561696547
H            1.15567094047967        2.24767368661835       -0.39111109816729
H            0.86667364524204        1.52332895336932        1.17020459413269
H            0.19755549785254        0.22484144224052       -1.50019070866357
H           -0.13535625831846       -0.46755765959726        0.06740606131290
H            2.65502976135999        0.31460498222978       -0.85686248433194
H            2.25696156142735       -0.54669763460886        0.60682626427346
H            3.18555358527852       -2.00675477233005       -1.10972980005297
H            1.94228566988049       -1.57373836855786       -2.24299675756925
H            1.83452859995608       -3.83005252121406       -0.83044639484354
H            1.19010006939860       -2.81559432303893        0.42175456857894
C           -0.70391745679143        6.58179785919795        4.78457526107380
H           -1.20960959771591        4.49375577026942        4.78528498753297
H            0.46120938697843        4.81858954848465        4.40245669718979
H           -1.72149436493884        6.95344421112428        4.65797528569630
H           -0.46894721977655        6.61876276413525        5.84795308059608
H           -0.03667377780836        7.27764974235978        4.27449579311906
