62
A2000/struc.xyz
C           -2.28862623443247       -0.43352022745550        3.41936541606673
C           -1.99176855803827        0.43945571468930        2.21006279602974
C           -2.26581960584006       -0.24379128661196        0.88105440862198
C           -1.93257436535382        0.62346655383053       -0.32215036720088
C           -2.15954967294529       -0.06837340213588       -1.65581745584922
C           -1.83087200945578        0.79995848960288       -2.85886195706825
C           -2.05904586193468        0.10672811326498       -4.19228776387839
H           -0.78838196482598        1.12486340520287       -2.79621767382944
H           -2.43054871368574        1.71469562694284       -2.82065061399437
H           -1.55690086704439       -0.98097516820863       -1.69429380078395
H           -3.20137667359790       -0.39677944224245       -1.72052377656165
H           -0.88853558511905        0.94309029661231       -0.25558081206735
H           -2.52768678716874        1.54088137704466       -0.28304360007751
H           -1.68277770789104       -1.16878561408529        0.82950824651711
H           -3.31518040442764       -0.54976811504146        0.83144547952912
H           -0.94545429847619        0.74999603121322        2.22440704525622
H           -2.57622252057282        1.36252033622993        2.27726433233539
C           -1.94680375157592        0.20748342037782        4.76255470656517
C           -0.48067245624634        0.58994902476061        4.93685854255658
C            0.48067245624636       -0.58994902476065        4.93685854255658
C            1.94680375157593       -0.20748342037780        4.76255470656517
C            2.28862623443244        0.43352022745553        3.41936541606672
C            1.99176855803827       -0.43945571468930        2.21006279602975
C            2.26581960584005        0.24379128661195        0.88105440862198
C            1.93257436535382       -0.62346655383054       -0.32215036720088
C            2.15954967294529        0.06837340213588       -1.65581745584922
H            2.52768678716875       -1.54088137704467       -0.28304360007751
H            0.88853558511906       -0.94309029661233       -0.25558081206735
H            1.68277770789103        1.16878561408527        0.82950824651711
H            3.31518040442762        0.54976811504147        0.83144547952912
H            0.94545429847619       -0.74999603121324        2.22440704525622
H            2.57622252057284       -1.36252033622993        2.27726433233540
H            1.75485780118046        1.38116320261945        3.31415843792076
H            3.34965503668360        0.69692570825182        3.41779147419434
H            2.56045122295083       -1.10362430445491        4.89078191992364
H            2.24050945417656        0.47580784798153        5.56424557308759
H            0.36266545434208       -1.14380031352310        5.87188682903078
H            0.20624065166183       -1.29332466845728        4.15072102912796
H           -0.36266545434204        1.14380031352306        5.87188682903078
H           -0.20624065166178        1.29332466845724        4.15072102912797
H           -2.56045122295078        1.10362430445496        4.89078191992364
H           -2.24050945417659       -0.47580784798151        5.56424557308758
H           -1.75485780118055       -1.38116320261946        3.31415843792076
H           -3.34965503668364       -0.69692570825174        3.41779147419434
C            1.83087200945578       -0.79995848960288       -2.85886195706825
H            1.55690086704437        0.98097516820862       -1.69429380078395
H            3.20137667359789        0.39677944224246       -1.72052377656165
C            2.05904586193467       -0.10672811326497       -4.19228776387839
H            2.43054871368575       -1.71469562694284       -2.82065061399438
H            0.78838196482598       -1.12486340520288       -2.79621767382945
C           -1.72652576501853        0.97844521471051       -5.39078218618893
H           -1.45984198674087       -0.80685720434437       -4.22728247753425
H           -3.10109436620863       -0.21856117196996       -4.25504048186538
C            1.72652576501855       -0.97844521471051       -5.39078218618892
H            1.45984198674086        0.80685720434437       -4.22728247753426
H            3.10109436620862        0.21856117196997       -4.25504048186538
H            1.88522059910862       -0.44748519801453       -6.32926509185980
H            2.34566633285607       -1.87610572590302       -5.41105522403541
H            0.68541745544111       -1.30042607479695       -5.36925295396837
H           -1.88522059910864        0.44748519801454       -6.32926509185980
H           -2.34566633285602        1.87610572590305       -5.41105522403540
H           -0.68541745544109        1.30042607479690       -5.36925295396837
