62
A2015/struc.xyz
C           -5.75050894523925       -2.64000275112656       -1.25003248774492
C           -4.27491563298718       -2.90267180298010       -1.00074373351508
C           -3.98012883108693       -3.36449548001648        0.41846700927063
C           -2.52256045818051       -3.72644510211178        0.67770812090252
C           -1.55638685783082       -2.55391451589487        0.59568042084093
C           -0.11237739963742       -2.89642585627887        0.94458686577806
C            0.56689357120537       -3.82813902055728       -0.04716364680291
C            2.00086841564032       -4.20035732161677        0.31587397613254
C            2.97932005696406       -3.03782324935668        0.43336673572765
C            3.16599569453202       -2.24244841977338       -0.84792729564588
C            4.23072135274958       -1.15501070563776       -0.75613296188247
C            3.95816700969531       -0.05548696245446        0.26471711514261
C            2.70642485526137        0.75959426664971       -0.01477709658633
C            2.47585032662039        1.87086055961637        0.99612163022674
C            1.23752613299006        2.72215110932854        0.74116721558694
C            1.29952720394025        3.55385577414640       -0.53168911546007
C            0.09196117905735        4.45657788683914       -0.75774056126393
C           -0.04433129892324        5.59549226482845        0.24188339964856
C           -1.17380678615208        6.57194441605324       -0.06502423652697
C           -2.56726994022903        5.97063483270265        0.03194296213273
H           -6.13116221820031       -1.86411974040606       -0.58450941639060
H           -6.34739776520734       -3.53694392434604       -1.07966719656229
H           -5.93131845551083       -2.31310893435444       -2.27386894614717
H           -3.70806351580065       -1.99632795521153       -1.22340635442237
H           -3.91432081966446       -3.66068820577414       -1.70277516796841
H           -4.60285845442840       -4.23655371640575        0.63829083711095
H           -4.29449655654266       -2.58881292992778        1.12449815259710
H           -2.22677977255442       -4.50767047759770       -0.02697618472101
H           -2.44021907652015       -4.17490213495584        1.67233883726998
H           -1.90709403156683       -1.76800731190057        1.27148550584516
H           -1.57872746816979       -2.11757009271055       -0.40621261563879
H           -0.07398127482870       -3.34151005798347        1.94462092513804
H            0.45396343657075       -1.96504623211793        1.01188617862116
H            0.53737173669884       -3.37210725407315       -1.04076592314020
H           -0.00639208626137       -4.75307301604261       -0.13357407342112
H            2.37775199755709       -4.90521614533493       -0.43092567066697
H            1.99002836363969       -4.74572664533587        1.26411836933573
H            3.95087313602023       -3.43226593906770        0.74579219054290
H            2.66245523814423       -2.37495318180653        1.24050761355690
H            2.21622153592346       -1.79972880830927       -1.15401028518164
H            3.43931443284157       -2.93079544028976       -1.65317362817986
H            4.35001947056560       -0.69439775223652       -1.74118304187747
H            5.19234071329328       -1.62179137246326       -0.52400627251460
H            4.81836375741938        0.61957324784255        0.28454725058724
H            3.89950866933605       -0.48140197731830        1.26979724831618
H            1.82757313214660        0.10922845809121       -0.02338795408202
H            2.78010094989609        1.17386239274396       -1.02349796341533
H            3.35606828130327        2.52102351292273        1.02894765809854
H            2.39912475166680        1.42476295883679        1.99187748448599
H            1.09128123124849        3.37993309379770        1.60002442444008
H            0.35375158095874        2.07620908160024        0.70475477071968
H            1.39860133266162        2.89138082803048       -1.39367561860111
H            2.20931797439186        4.16358540444175       -0.51720070921880
H           -0.81219395503827        3.84231834141148       -0.75388585560906
H            0.15747066855973        4.88513601980384       -1.76242086659306
H            0.90061919100544        6.14664705012510        0.27103919214252
H           -0.18935538588320        5.19787901246900        1.24967020077648
H           -1.02562252496392        6.99143689747300       -1.06459488195915
H           -1.10327243910291        7.41536163827195        0.62632747923789
H           -2.72699592642276        5.18381916673504       -0.70414618513801
H           -3.33483114115249        6.72693566545359       -0.13098578379828
H           -2.73800836241894        5.53573655355985        1.01804196046326
