38
A128/struc.xyz
C           -1.40379521107373        1.82356307857713       -2.10768484487874
C           -2.01523790553476        0.65556409309586       -1.33297006115422
C           -1.65745314270326        0.62063152738065        0.14639303446842
C           -2.09213243025343       -0.65352290723972        0.85029992756640
C           -1.61278940136292       -0.76368813317987        2.29246287137108
C           -2.17781920204678        0.29640342675262        3.22388961716525
H           -1.86956802953453        1.29975209065455        2.93350626149755
H           -1.84536200729209        0.13968777090182        4.24968141381863
H           -3.26873815956806        0.27622166932905        3.22394998066687
H           -1.87330639086996       -1.75279492195013        2.67627118910898
H           -0.51976145409203       -0.71552683530809        2.30604051666349
H           -3.18312697602195       -0.73893944308248        0.81957204264227
H           -1.70988314430276       -1.51099836959217        0.28877030799731
H           -0.58187271944923        0.73766722618398        0.27817533349971
H           -2.10676998349439        1.49109212510836        0.62904687596113
H           -3.10419216182821        0.69745041186621       -1.41643536457525
H           -1.72478237464011       -0.28508294542187       -1.80923127152945
C           -0.01566960284517        1.60440154772863       -2.70850237292096
C            1.12691448073535        1.33446411845808       -1.72852011792843
C            1.33523295156949       -0.13402569931781       -1.38247491303779
C            2.29514712039258       -0.35922710068778       -0.22797144601660
C            2.44502969101103       -1.82115786070757        0.15949322668185
C            3.38338304820403       -2.04121576593556        1.33343245587583
H            3.03124343979614       -1.51712991379951        2.22290934714188
H            3.46839273050934       -3.09781114549424        1.58597208686088
H            4.38599410377591       -1.67273253195357        1.11326599243348
H            1.45847584713289       -2.22649703771173        0.40129764363378
H            2.79839800885674       -2.39038503140329       -0.70468193519647
H            3.27646774900301        0.05753682775702       -0.47537809118925
H            1.94464276765498        0.20511757929059        0.64246312124698
H            0.38207473578589       -0.60291658207645       -1.13939406190493
H            1.69863346733342       -0.65876342152500       -2.27100057394789
H            0.96001720537140        1.90961350375088       -0.81367891148282
H            2.06041381376751        1.72050271236778       -2.14536351996452
H            0.22501391175712        2.49513838325471       -3.29315362017944
H           -0.06702556607212        0.78419003578424       -3.43164818924333
H           -1.37442672118826        2.70460178102351       -1.45845035305109
H           -2.07176248848307        2.08881573712116       -2.93035359810060
